*SPEF "ieee 1481-1999"
*DESIGN "wb_bridge_2way"
*DATE "11:11:11 Fri 11 11, 1111"
*VENDOR "OpenRCX"
*PROGRAM "Parallel Extraction"
*VERSION "1.0"
*DESIGN_FLOW "NAME_SCOPE LOCAL" "PIN_CAP NONE"
*DIVIDER /
*DELIMITER :
*BUS_DELIMITER []
*T_UNIT 1 NS
*C_UNIT 1 PF
*R_UNIT 1 OHM
*L_UNIT 1 HENRY

*NAME_MAP
*3 wb_clk_i
*4 wb_rst_i
*5 wbm_a_ack_i
*6 wbm_a_adr_o[0]
*7 wbm_a_adr_o[10]
*8 wbm_a_adr_o[11]
*9 wbm_a_adr_o[12]
*10 wbm_a_adr_o[13]
*11 wbm_a_adr_o[14]
*12 wbm_a_adr_o[15]
*13 wbm_a_adr_o[16]
*14 wbm_a_adr_o[17]
*15 wbm_a_adr_o[18]
*16 wbm_a_adr_o[19]
*17 wbm_a_adr_o[1]
*18 wbm_a_adr_o[20]
*19 wbm_a_adr_o[21]
*20 wbm_a_adr_o[22]
*21 wbm_a_adr_o[23]
*22 wbm_a_adr_o[24]
*23 wbm_a_adr_o[25]
*24 wbm_a_adr_o[26]
*25 wbm_a_adr_o[27]
*26 wbm_a_adr_o[28]
*27 wbm_a_adr_o[29]
*28 wbm_a_adr_o[2]
*29 wbm_a_adr_o[30]
*30 wbm_a_adr_o[31]
*31 wbm_a_adr_o[3]
*32 wbm_a_adr_o[4]
*33 wbm_a_adr_o[5]
*34 wbm_a_adr_o[6]
*35 wbm_a_adr_o[7]
*36 wbm_a_adr_o[8]
*37 wbm_a_adr_o[9]
*38 wbm_a_cyc_o
*39 wbm_a_dat_i[0]
*40 wbm_a_dat_i[10]
*41 wbm_a_dat_i[11]
*42 wbm_a_dat_i[12]
*43 wbm_a_dat_i[13]
*44 wbm_a_dat_i[14]
*45 wbm_a_dat_i[15]
*46 wbm_a_dat_i[16]
*47 wbm_a_dat_i[17]
*48 wbm_a_dat_i[18]
*49 wbm_a_dat_i[19]
*50 wbm_a_dat_i[1]
*51 wbm_a_dat_i[20]
*52 wbm_a_dat_i[21]
*53 wbm_a_dat_i[22]
*54 wbm_a_dat_i[23]
*55 wbm_a_dat_i[24]
*56 wbm_a_dat_i[25]
*57 wbm_a_dat_i[26]
*58 wbm_a_dat_i[27]
*59 wbm_a_dat_i[28]
*60 wbm_a_dat_i[29]
*61 wbm_a_dat_i[2]
*62 wbm_a_dat_i[30]
*63 wbm_a_dat_i[31]
*64 wbm_a_dat_i[3]
*65 wbm_a_dat_i[4]
*66 wbm_a_dat_i[5]
*67 wbm_a_dat_i[6]
*68 wbm_a_dat_i[7]
*69 wbm_a_dat_i[8]
*70 wbm_a_dat_i[9]
*71 wbm_a_dat_o[0]
*72 wbm_a_dat_o[10]
*73 wbm_a_dat_o[11]
*74 wbm_a_dat_o[12]
*75 wbm_a_dat_o[13]
*76 wbm_a_dat_o[14]
*77 wbm_a_dat_o[15]
*78 wbm_a_dat_o[16]
*79 wbm_a_dat_o[17]
*80 wbm_a_dat_o[18]
*81 wbm_a_dat_o[19]
*82 wbm_a_dat_o[1]
*83 wbm_a_dat_o[20]
*84 wbm_a_dat_o[21]
*85 wbm_a_dat_o[22]
*86 wbm_a_dat_o[23]
*87 wbm_a_dat_o[24]
*88 wbm_a_dat_o[25]
*89 wbm_a_dat_o[26]
*90 wbm_a_dat_o[27]
*91 wbm_a_dat_o[28]
*92 wbm_a_dat_o[29]
*93 wbm_a_dat_o[2]
*94 wbm_a_dat_o[30]
*95 wbm_a_dat_o[31]
*96 wbm_a_dat_o[3]
*97 wbm_a_dat_o[4]
*98 wbm_a_dat_o[5]
*99 wbm_a_dat_o[6]
*100 wbm_a_dat_o[7]
*101 wbm_a_dat_o[8]
*102 wbm_a_dat_o[9]
*103 wbm_a_sel_o[0]
*104 wbm_a_sel_o[1]
*105 wbm_a_sel_o[2]
*106 wbm_a_sel_o[3]
*107 wbm_a_stb_o
*108 wbm_a_we_o
*109 wbm_b_ack_i
*110 wbm_b_adr_o[0]
*111 wbm_b_adr_o[1]
*112 wbm_b_adr_o[2]
*113 wbm_b_adr_o[3]
*114 wbm_b_adr_o[4]
*115 wbm_b_adr_o[5]
*116 wbm_b_adr_o[6]
*117 wbm_b_adr_o[7]
*118 wbm_b_adr_o[8]
*119 wbm_b_adr_o[9]
*120 wbm_b_cyc_o
*121 wbm_b_dat_i[0]
*122 wbm_b_dat_i[10]
*123 wbm_b_dat_i[11]
*124 wbm_b_dat_i[12]
*125 wbm_b_dat_i[13]
*126 wbm_b_dat_i[14]
*127 wbm_b_dat_i[15]
*128 wbm_b_dat_i[16]
*129 wbm_b_dat_i[17]
*130 wbm_b_dat_i[18]
*131 wbm_b_dat_i[19]
*132 wbm_b_dat_i[1]
*133 wbm_b_dat_i[20]
*134 wbm_b_dat_i[21]
*135 wbm_b_dat_i[22]
*136 wbm_b_dat_i[23]
*137 wbm_b_dat_i[24]
*138 wbm_b_dat_i[25]
*139 wbm_b_dat_i[26]
*140 wbm_b_dat_i[27]
*141 wbm_b_dat_i[28]
*142 wbm_b_dat_i[29]
*143 wbm_b_dat_i[2]
*144 wbm_b_dat_i[30]
*145 wbm_b_dat_i[31]
*146 wbm_b_dat_i[3]
*147 wbm_b_dat_i[4]
*148 wbm_b_dat_i[5]
*149 wbm_b_dat_i[6]
*150 wbm_b_dat_i[7]
*151 wbm_b_dat_i[8]
*152 wbm_b_dat_i[9]
*153 wbm_b_dat_o[0]
*154 wbm_b_dat_o[10]
*155 wbm_b_dat_o[11]
*156 wbm_b_dat_o[12]
*157 wbm_b_dat_o[13]
*158 wbm_b_dat_o[14]
*159 wbm_b_dat_o[15]
*160 wbm_b_dat_o[16]
*161 wbm_b_dat_o[17]
*162 wbm_b_dat_o[18]
*163 wbm_b_dat_o[19]
*164 wbm_b_dat_o[1]
*165 wbm_b_dat_o[20]
*166 wbm_b_dat_o[21]
*167 wbm_b_dat_o[22]
*168 wbm_b_dat_o[23]
*169 wbm_b_dat_o[24]
*170 wbm_b_dat_o[25]
*171 wbm_b_dat_o[26]
*172 wbm_b_dat_o[27]
*173 wbm_b_dat_o[28]
*174 wbm_b_dat_o[29]
*175 wbm_b_dat_o[2]
*176 wbm_b_dat_o[30]
*177 wbm_b_dat_o[31]
*178 wbm_b_dat_o[3]
*179 wbm_b_dat_o[4]
*180 wbm_b_dat_o[5]
*181 wbm_b_dat_o[6]
*182 wbm_b_dat_o[7]
*183 wbm_b_dat_o[8]
*184 wbm_b_dat_o[9]
*185 wbm_b_sel_o[0]
*186 wbm_b_sel_o[1]
*187 wbm_b_sel_o[2]
*188 wbm_b_sel_o[3]
*189 wbm_b_stb_o
*190 wbm_b_we_o
*191 wbs_ack_o
*192 wbs_adr_i[0]
*193 wbs_adr_i[10]
*194 wbs_adr_i[11]
*195 wbs_adr_i[12]
*196 wbs_adr_i[13]
*197 wbs_adr_i[14]
*198 wbs_adr_i[15]
*199 wbs_adr_i[16]
*200 wbs_adr_i[17]
*201 wbs_adr_i[18]
*202 wbs_adr_i[19]
*203 wbs_adr_i[1]
*204 wbs_adr_i[20]
*205 wbs_adr_i[21]
*206 wbs_adr_i[22]
*207 wbs_adr_i[23]
*208 wbs_adr_i[24]
*209 wbs_adr_i[25]
*210 wbs_adr_i[26]
*211 wbs_adr_i[27]
*212 wbs_adr_i[28]
*213 wbs_adr_i[29]
*214 wbs_adr_i[2]
*215 wbs_adr_i[30]
*216 wbs_adr_i[31]
*217 wbs_adr_i[3]
*218 wbs_adr_i[4]
*219 wbs_adr_i[5]
*220 wbs_adr_i[6]
*221 wbs_adr_i[7]
*222 wbs_adr_i[8]
*223 wbs_adr_i[9]
*224 wbs_cyc_i
*225 wbs_dat_i[0]
*226 wbs_dat_i[10]
*227 wbs_dat_i[11]
*228 wbs_dat_i[12]
*229 wbs_dat_i[13]
*230 wbs_dat_i[14]
*231 wbs_dat_i[15]
*232 wbs_dat_i[16]
*233 wbs_dat_i[17]
*234 wbs_dat_i[18]
*235 wbs_dat_i[19]
*236 wbs_dat_i[1]
*237 wbs_dat_i[20]
*238 wbs_dat_i[21]
*239 wbs_dat_i[22]
*240 wbs_dat_i[23]
*241 wbs_dat_i[24]
*242 wbs_dat_i[25]
*243 wbs_dat_i[26]
*244 wbs_dat_i[27]
*245 wbs_dat_i[28]
*246 wbs_dat_i[29]
*247 wbs_dat_i[2]
*248 wbs_dat_i[30]
*249 wbs_dat_i[31]
*250 wbs_dat_i[3]
*251 wbs_dat_i[4]
*252 wbs_dat_i[5]
*253 wbs_dat_i[6]
*254 wbs_dat_i[7]
*255 wbs_dat_i[8]
*256 wbs_dat_i[9]
*257 wbs_dat_o[0]
*258 wbs_dat_o[10]
*259 wbs_dat_o[11]
*260 wbs_dat_o[12]
*261 wbs_dat_o[13]
*262 wbs_dat_o[14]
*263 wbs_dat_o[15]
*264 wbs_dat_o[16]
*265 wbs_dat_o[17]
*266 wbs_dat_o[18]
*267 wbs_dat_o[19]
*268 wbs_dat_o[1]
*269 wbs_dat_o[20]
*270 wbs_dat_o[21]
*271 wbs_dat_o[22]
*272 wbs_dat_o[23]
*273 wbs_dat_o[24]
*274 wbs_dat_o[25]
*275 wbs_dat_o[26]
*276 wbs_dat_o[27]
*277 wbs_dat_o[28]
*278 wbs_dat_o[29]
*279 wbs_dat_o[2]
*280 wbs_dat_o[30]
*281 wbs_dat_o[31]
*282 wbs_dat_o[3]
*283 wbs_dat_o[4]
*284 wbs_dat_o[5]
*285 wbs_dat_o[6]
*286 wbs_dat_o[7]
*287 wbs_dat_o[8]
*288 wbs_dat_o[9]
*289 wbs_sel_i[0]
*290 wbs_sel_i[1]
*291 wbs_sel_i[2]
*292 wbs_sel_i[3]
*293 wbs_stb_i
*294 wbs_we_i
*295 _000_
*296 _001_
*297 _002_
*298 _003_
*299 _004_
*300 _005_
*301 _006_
*302 _007_
*303 _008_
*304 _009_
*305 _010_
*306 _011_
*307 _012_
*308 _013_
*309 _014_
*310 _015_
*311 _016_
*312 _017_
*313 _018_
*314 _019_
*315 _020_
*316 _021_
*317 _022_
*318 _023_
*319 _024_
*320 _025_
*321 _026_
*322 _027_
*323 _028_
*324 _029_
*325 _030_
*326 _031_
*327 _032_
*328 _033_
*329 _034_
*330 _035_
*331 _036_
*332 _037_
*333 _038_
*334 _039_
*335 _040_
*336 _041_
*337 _042_
*338 _043_
*339 _044_
*340 _045_
*341 _046_
*342 _047_
*343 _048_
*344 _049_
*345 _050_
*346 _051_
*347 _052_
*348 _053_
*349 _054_
*350 _055_
*351 _056_
*352 _057_
*353 _058_
*354 _059_
*355 _060_
*356 _061_
*357 _062_
*358 _063_
*359 _064_
*360 _065_
*361 _066_
*362 _067_
*363 _068_
*364 _069_
*365 _070_
*366 _071_
*367 _072_
*368 _073_
*369 _074_
*370 _075_
*371 _076_
*372 _077_
*373 _078_
*374 _079_
*375 _080_
*376 _081_
*377 net1
*378 net10
*379 net100
*380 net101
*381 net102
*382 net103
*383 net104
*384 net105
*385 net106
*386 net107
*387 net108
*388 net109
*389 net11
*390 net110
*391 net111
*392 net112
*393 net113
*394 net114
*395 net115
*396 net116
*397 net117
*398 net118
*399 net119
*400 net12
*401 net120
*402 net121
*403 net122
*404 net123
*405 net124
*406 net125
*407 net126
*408 net127
*409 net128
*410 net129
*411 net13
*412 net130
*413 net131
*414 net132
*415 net133
*416 net134
*417 net135
*418 net136
*419 net137
*420 net138
*421 net139
*422 net14
*423 net140
*424 net141
*425 net142
*426 net143
*427 net144
*428 net145
*429 net146
*430 net147
*431 net148
*432 net149
*433 net15
*434 net150
*435 net151
*436 net152
*437 net153
*438 net154
*439 net155
*440 net156
*441 net157
*442 net158
*443 net159
*444 net16
*445 net160
*446 net161
*447 net162
*448 net163
*449 net164
*450 net165
*451 net166
*452 net167
*453 net168
*454 net169
*455 net17
*456 net170
*457 net171
*458 net172
*459 net173
*460 net174
*461 net175
*462 net176
*463 net177
*464 net178
*465 net179
*466 net18
*467 net180
*468 net181
*469 net182
*470 net183
*471 net184
*472 net185
*473 net186
*474 net187
*475 net188
*476 net189
*477 net19
*478 net190
*479 net191
*480 net192
*481 net193
*482 net194
*483 net195
*484 net196
*485 net197
*486 net198
*487 net199
*488 net2
*489 net20
*490 net200
*491 net201
*492 net202
*493 net203
*494 net204
*495 net205
*496 net206
*497 net207
*498 net208
*499 net209
*500 net21
*501 net210
*502 net211
*503 net212
*504 net213
*505 net214
*506 net215
*507 net216
*508 net217
*509 net218
*510 net219
*511 net22
*512 net220
*513 net221
*514 net222
*515 net223
*516 net224
*517 net225
*518 net226
*519 net227
*520 net228
*521 net229
*522 net23
*523 net230
*524 net231
*525 net232
*526 net233
*527 net234
*528 net235
*529 net236
*530 net237
*531 net238
*532 net239
*533 net24
*534 net240
*535 net241
*536 net242
*537 net243
*538 net244
*539 net245
*540 net246
*541 net247
*542 net248
*543 net249
*544 net25
*545 net250
*546 net251
*547 net252
*548 net253
*549 net254
*550 net255
*551 net256
*552 net257
*553 net258
*554 net259
*555 net26
*556 net260
*557 net261
*558 net262
*559 net263
*560 net264
*561 net265
*562 net266
*563 net267
*564 net268
*565 net269
*566 net27
*567 net270
*568 net271
*569 net272
*570 net273
*571 net274
*572 net275
*573 net276
*574 net277
*575 net278
*576 net279
*577 net28
*578 net280
*579 net281
*580 net282
*581 net29
*582 net3
*583 net30
*584 net31
*585 net32
*586 net33
*587 net34
*588 net35
*589 net36
*590 net37
*591 net38
*592 net39
*593 net4
*594 net40
*595 net41
*596 net42
*597 net43
*598 net44
*599 net45
*600 net46
*601 net47
*602 net48
*603 net49
*604 net5
*605 net50
*606 net51
*607 net52
*608 net53
*609 net54
*610 net55
*611 net56
*612 net57
*613 net58
*614 net59
*615 net6
*616 net60
*617 net61
*618 net62
*619 net63
*620 net64
*621 net65
*622 net66
*623 net67
*624 net68
*625 net69
*626 net7
*627 net70
*628 net71
*629 net72
*630 net73
*631 net74
*632 net75
*633 net76
*634 net77
*635 net78
*636 net79
*637 net8
*638 net80
*639 net81
*640 net82
*641 net83
*642 net84
*643 net85
*644 net86
*645 net87
*646 net88
*647 net89
*648 net9
*649 net90
*650 net91
*651 net92
*652 net93
*653 net94
*654 net95
*655 net96
*656 net97
*657 net98
*658 net99
*659 FILLER_0_13
*660 FILLER_0_20
*661 FILLER_0_32
*662 FILLER_0_39
*663 FILLER_0_51
*664 FILLER_0_55
*665 FILLER_0_57
*666 FILLER_0_6
*667 FILLER_0_69
*668 FILLER_0_81
*669 FILLER_0_85
*670 FILLER_0_91
*671 FILLER_0_99
*672 FILLER_100_20
*673 FILLER_100_29
*674 FILLER_100_41
*675 FILLER_100_53
*676 FILLER_100_65
*677 FILLER_100_7
*678 FILLER_100_77
*679 FILLER_100_83
*680 FILLER_100_85
*681 FILLER_100_99
*682 FILLER_101_101
*683 FILLER_101_11
*684 FILLER_101_22
*685 FILLER_101_34
*686 FILLER_101_46
*687 FILLER_101_54
*688 FILLER_101_57
*689 FILLER_101_69
*690 FILLER_101_81
*691 FILLER_101_93
*692 FILLER_102_11
*693 FILLER_102_19
*694 FILLER_102_27
*695 FILLER_102_29
*696 FILLER_102_41
*697 FILLER_102_53
*698 FILLER_102_65
*699 FILLER_102_77
*700 FILLER_102_83
*701 FILLER_102_85
*702 FILLER_102_93
*703 FILLER_102_99
*704 FILLER_103_19
*705 FILLER_103_31
*706 FILLER_103_43
*707 FILLER_103_55
*708 FILLER_103_57
*709 FILLER_103_69
*710 FILLER_103_7
*711 FILLER_103_81
*712 FILLER_103_93
*713 FILLER_103_99
*714 FILLER_104_21
*715 FILLER_104_27
*716 FILLER_104_29
*717 FILLER_104_41
*718 FILLER_104_53
*719 FILLER_104_65
*720 FILLER_104_7
*721 FILLER_104_77
*722 FILLER_104_83
*723 FILLER_104_85
*724 FILLER_104_93
*725 FILLER_104_99
*726 FILLER_105_101
*727 FILLER_105_15
*728 FILLER_105_27
*729 FILLER_105_39
*730 FILLER_105_51
*731 FILLER_105_55
*732 FILLER_105_57
*733 FILLER_105_69
*734 FILLER_105_7
*735 FILLER_105_81
*736 FILLER_105_93
*737 FILLER_106_11
*738 FILLER_106_22
*739 FILLER_106_29
*740 FILLER_106_41
*741 FILLER_106_53
*742 FILLER_106_65
*743 FILLER_106_7
*744 FILLER_106_77
*745 FILLER_106_83
*746 FILLER_106_85
*747 FILLER_106_93
*748 FILLER_106_99
*749 FILLER_107_21
*750 FILLER_107_33
*751 FILLER_107_45
*752 FILLER_107_53
*753 FILLER_107_57
*754 FILLER_107_69
*755 FILLER_107_7
*756 FILLER_107_81
*757 FILLER_107_93
*758 FILLER_107_99
*759 FILLER_108_11
*760 FILLER_108_19
*761 FILLER_108_27
*762 FILLER_108_33
*763 FILLER_108_45
*764 FILLER_108_57
*765 FILLER_108_69
*766 FILLER_108_81
*767 FILLER_108_85
*768 FILLER_108_97
*769 FILLER_109_11
*770 FILLER_109_19
*771 FILLER_109_31
*772 FILLER_109_43
*773 FILLER_109_55
*774 FILLER_109_57
*775 FILLER_109_69
*776 FILLER_109_81
*777 FILLER_109_93
*778 FILLER_109_99
*779 FILLER_10_13
*780 FILLER_10_24
*781 FILLER_10_29
*782 FILLER_10_41
*783 FILLER_10_53
*784 FILLER_10_65
*785 FILLER_10_77
*786 FILLER_10_83
*787 FILLER_10_85
*788 FILLER_10_97
*789 FILLER_110_11
*790 FILLER_110_23
*791 FILLER_110_27
*792 FILLER_110_29
*793 FILLER_110_41
*794 FILLER_110_53
*795 FILLER_110_65
*796 FILLER_110_77
*797 FILLER_110_83
*798 FILLER_110_85
*799 FILLER_110_93
*800 FILLER_110_99
*801 FILLER_111_15
*802 FILLER_111_29
*803 FILLER_111_36
*804 FILLER_111_48
*805 FILLER_111_57
*806 FILLER_111_69
*807 FILLER_111_7
*808 FILLER_111_81
*809 FILLER_111_93
*810 FILLER_111_99
*811 FILLER_112_11
*812 FILLER_112_23
*813 FILLER_112_27
*814 FILLER_112_33
*815 FILLER_112_45
*816 FILLER_112_57
*817 FILLER_112_69
*818 FILLER_112_81
*819 FILLER_112_85
*820 FILLER_112_97
*821 FILLER_113_16
*822 FILLER_113_24
*823 FILLER_113_3
*824 FILLER_113_32
*825 FILLER_113_44
*826 FILLER_113_57
*827 FILLER_113_69
*828 FILLER_113_7
*829 FILLER_113_81
*830 FILLER_113_99
*831 FILLER_114_23
*832 FILLER_114_27
*833 FILLER_114_29
*834 FILLER_114_41
*835 FILLER_114_53
*836 FILLER_114_65
*837 FILLER_114_7
*838 FILLER_114_77
*839 FILLER_114_83
*840 FILLER_114_85
*841 FILLER_114_99
*842 FILLER_115_101
*843 FILLER_115_15
*844 FILLER_115_29
*845 FILLER_115_3
*846 FILLER_115_41
*847 FILLER_115_53
*848 FILLER_115_57
*849 FILLER_115_69
*850 FILLER_115_81
*851 FILLER_115_93
*852 FILLER_116_15
*853 FILLER_116_23
*854 FILLER_116_27
*855 FILLER_116_29
*856 FILLER_116_41
*857 FILLER_116_53
*858 FILLER_116_65
*859 FILLER_116_7
*860 FILLER_116_77
*861 FILLER_116_83
*862 FILLER_116_85
*863 FILLER_116_93
*864 FILLER_116_99
*865 FILLER_117_13
*866 FILLER_117_25
*867 FILLER_117_37
*868 FILLER_117_49
*869 FILLER_117_55
*870 FILLER_117_57
*871 FILLER_117_69
*872 FILLER_117_81
*873 FILLER_117_93
*874 FILLER_117_99
*875 FILLER_118_14
*876 FILLER_118_21
*877 FILLER_118_27
*878 FILLER_118_29
*879 FILLER_118_41
*880 FILLER_118_53
*881 FILLER_118_65
*882 FILLER_118_7
*883 FILLER_118_77
*884 FILLER_118_83
*885 FILLER_118_85
*886 FILLER_118_93
*887 FILLER_118_99
*888 FILLER_119_101
*889 FILLER_119_15
*890 FILLER_119_23
*891 FILLER_119_3
*892 FILLER_119_35
*893 FILLER_119_47
*894 FILLER_119_55
*895 FILLER_119_57
*896 FILLER_119_69
*897 FILLER_119_81
*898 FILLER_119_93
*899 FILLER_11_14
*900 FILLER_11_18
*901 FILLER_11_30
*902 FILLER_11_42
*903 FILLER_11_54
*904 FILLER_11_57
*905 FILLER_11_6
*906 FILLER_11_69
*907 FILLER_11_81
*908 FILLER_11_87
*909 FILLER_11_91
*910 FILLER_11_99
*911 FILLER_120_13
*912 FILLER_120_23
*913 FILLER_120_27
*914 FILLER_120_29
*915 FILLER_120_41
*916 FILLER_120_53
*917 FILLER_120_65
*918 FILLER_120_77
*919 FILLER_120_83
*920 FILLER_120_85
*921 FILLER_120_93
*922 FILLER_120_99
*923 FILLER_121_15
*924 FILLER_121_27
*925 FILLER_121_3
*926 FILLER_121_34
*927 FILLER_121_46
*928 FILLER_121_54
*929 FILLER_121_57
*930 FILLER_121_69
*931 FILLER_121_81
*932 FILLER_121_93
*933 FILLER_121_99
*934 FILLER_122_24
*935 FILLER_122_32
*936 FILLER_122_44
*937 FILLER_122_56
*938 FILLER_122_6
*939 FILLER_122_68
*940 FILLER_122_80
*941 FILLER_122_85
*942 FILLER_122_97
*943 FILLER_123_11
*944 FILLER_123_17
*945 FILLER_123_28
*946 FILLER_123_35
*947 FILLER_123_47
*948 FILLER_123_55
*949 FILLER_123_57
*950 FILLER_123_69
*951 FILLER_123_81
*952 FILLER_123_93
*953 FILLER_123_99
*954 FILLER_124_12
*955 FILLER_124_21
*956 FILLER_124_27
*957 FILLER_124_32
*958 FILLER_124_44
*959 FILLER_124_56
*960 FILLER_124_6
*961 FILLER_124_68
*962 FILLER_124_80
*963 FILLER_124_85
*964 FILLER_124_93
*965 FILLER_124_99
*966 FILLER_125_20
*967 FILLER_125_27
*968 FILLER_125_3
*969 FILLER_125_39
*970 FILLER_125_51
*971 FILLER_125_55
*972 FILLER_125_57
*973 FILLER_125_69
*974 FILLER_125_8
*975 FILLER_125_81
*976 FILLER_125_93
*977 FILLER_125_99
*978 FILLER_126_13
*979 FILLER_126_20
*980 FILLER_126_29
*981 FILLER_126_41
*982 FILLER_126_53
*983 FILLER_126_65
*984 FILLER_126_77
*985 FILLER_126_83
*986 FILLER_126_85
*987 FILLER_126_97
*988 FILLER_127_13
*989 FILLER_127_25
*990 FILLER_127_37
*991 FILLER_127_49
*992 FILLER_127_55
*993 FILLER_127_57
*994 FILLER_127_69
*995 FILLER_127_81
*996 FILLER_127_93
*997 FILLER_127_99
*998 FILLER_128_11
*999 FILLER_128_23
*1000 FILLER_128_27
*1001 FILLER_128_29
*1002 FILLER_128_41
*1003 FILLER_128_53
*1004 FILLER_128_65
*1005 FILLER_128_77
*1006 FILLER_128_83
*1007 FILLER_128_85
*1008 FILLER_128_93
*1009 FILLER_128_99
*1010 FILLER_129_101
*1011 FILLER_129_18
*1012 FILLER_129_30
*1013 FILLER_129_42
*1014 FILLER_129_54
*1015 FILLER_129_57
*1016 FILLER_129_6
*1017 FILLER_129_69
*1018 FILLER_129_81
*1019 FILLER_129_93
*1020 FILLER_12_15
*1021 FILLER_12_22
*1022 FILLER_12_3
*1023 FILLER_12_32
*1024 FILLER_12_44
*1025 FILLER_12_56
*1026 FILLER_12_68
*1027 FILLER_12_8
*1028 FILLER_12_80
*1029 FILLER_12_85
*1030 FILLER_12_91
*1031 FILLER_12_99
*1032 FILLER_130_13
*1033 FILLER_130_25
*1034 FILLER_130_29
*1035 FILLER_130_41
*1036 FILLER_130_53
*1037 FILLER_130_6
*1038 FILLER_130_65
*1039 FILLER_130_77
*1040 FILLER_130_83
*1041 FILLER_130_85
*1042 FILLER_130_93
*1043 FILLER_130_99
*1044 FILLER_131_11
*1045 FILLER_131_18
*1046 FILLER_131_30
*1047 FILLER_131_42
*1048 FILLER_131_54
*1049 FILLER_131_57
*1050 FILLER_131_69
*1051 FILLER_131_81
*1052 FILLER_131_93
*1053 FILLER_131_99
*1054 FILLER_132_11
*1055 FILLER_132_23
*1056 FILLER_132_27
*1057 FILLER_132_29
*1058 FILLER_132_41
*1059 FILLER_132_53
*1060 FILLER_132_65
*1061 FILLER_132_77
*1062 FILLER_132_83
*1063 FILLER_132_85
*1064 FILLER_132_93
*1065 FILLER_132_99
*1066 FILLER_133_101
*1067 FILLER_133_12
*1068 FILLER_133_21
*1069 FILLER_133_33
*1070 FILLER_133_45
*1071 FILLER_133_53
*1072 FILLER_133_57
*1073 FILLER_133_6
*1074 FILLER_133_69
*1075 FILLER_133_81
*1076 FILLER_133_93
*1077 FILLER_134_12
*1078 FILLER_134_21
*1079 FILLER_134_27
*1080 FILLER_134_32
*1081 FILLER_134_44
*1082 FILLER_134_56
*1083 FILLER_134_6
*1084 FILLER_134_68
*1085 FILLER_134_80
*1086 FILLER_134_85
*1087 FILLER_134_93
*1088 FILLER_134_99
*1089 FILLER_135_14
*1090 FILLER_135_21
*1091 FILLER_135_3
*1092 FILLER_135_33
*1093 FILLER_135_45
*1094 FILLER_135_53
*1095 FILLER_135_57
*1096 FILLER_135_69
*1097 FILLER_135_81
*1098 FILLER_135_93
*1099 FILLER_135_99
*1100 FILLER_136_14
*1101 FILLER_136_21
*1102 FILLER_136_27
*1103 FILLER_136_29
*1104 FILLER_136_3
*1105 FILLER_136_41
*1106 FILLER_136_53
*1107 FILLER_136_65
*1108 FILLER_136_77
*1109 FILLER_136_83
*1110 FILLER_136_85
*1111 FILLER_136_93
*1112 FILLER_136_99
*1113 FILLER_137_13
*1114 FILLER_137_20
*1115 FILLER_137_27
*1116 FILLER_137_34
*1117 FILLER_137_46
*1118 FILLER_137_54
*1119 FILLER_137_57
*1120 FILLER_137_6
*1121 FILLER_137_69
*1122 FILLER_137_81
*1123 FILLER_137_93
*1124 FILLER_137_99
*1125 FILLER_138_11
*1126 FILLER_138_18
*1127 FILLER_138_26
*1128 FILLER_138_3
*1129 FILLER_138_32
*1130 FILLER_138_39
*1131 FILLER_138_46
*1132 FILLER_138_54
*1133 FILLER_138_57
*1134 FILLER_138_69
*1135 FILLER_138_81
*1136 FILLER_138_85
*1137 FILLER_138_91
*1138 FILLER_138_99
*1139 FILLER_13_13
*1140 FILLER_13_22
*1141 FILLER_13_34
*1142 FILLER_13_46
*1143 FILLER_13_54
*1144 FILLER_13_57
*1145 FILLER_13_69
*1146 FILLER_13_81
*1147 FILLER_13_93
*1148 FILLER_13_99
*1149 FILLER_14_13
*1150 FILLER_14_21
*1151 FILLER_14_27
*1152 FILLER_14_29
*1153 FILLER_14_41
*1154 FILLER_14_53
*1155 FILLER_14_65
*1156 FILLER_14_77
*1157 FILLER_14_83
*1158 FILLER_14_85
*1159 FILLER_14_97
*1160 FILLER_15_13
*1161 FILLER_15_20
*1162 FILLER_15_32
*1163 FILLER_15_44
*1164 FILLER_15_57
*1165 FILLER_15_69
*1166 FILLER_15_81
*1167 FILLER_15_93
*1168 FILLER_15_99
*1169 FILLER_16_13
*1170 FILLER_16_21
*1171 FILLER_16_27
*1172 FILLER_16_32
*1173 FILLER_16_44
*1174 FILLER_16_56
*1175 FILLER_16_68
*1176 FILLER_16_80
*1177 FILLER_16_85
*1178 FILLER_16_91
*1179 FILLER_16_99
*1180 FILLER_17_13
*1181 FILLER_17_21
*1182 FILLER_17_33
*1183 FILLER_17_45
*1184 FILLER_17_53
*1185 FILLER_17_57
*1186 FILLER_17_69
*1187 FILLER_17_81
*1188 FILLER_17_93
*1189 FILLER_17_99
*1190 FILLER_18_13
*1191 FILLER_18_21
*1192 FILLER_18_27
*1193 FILLER_18_29
*1194 FILLER_18_41
*1195 FILLER_18_53
*1196 FILLER_18_65
*1197 FILLER_18_77
*1198 FILLER_18_83
*1199 FILLER_18_85
*1200 FILLER_18_93
*1201 FILLER_18_99
*1202 FILLER_19_13
*1203 FILLER_19_27
*1204 FILLER_19_39
*1205 FILLER_19_51
*1206 FILLER_19_55
*1207 FILLER_19_57
*1208 FILLER_19_69
*1209 FILLER_19_81
*1210 FILLER_19_87
*1211 FILLER_19_91
*1212 FILLER_19_99
*1213 FILLER_1_13
*1214 FILLER_1_20
*1215 FILLER_1_27
*1216 FILLER_1_34
*1217 FILLER_1_46
*1218 FILLER_1_54
*1219 FILLER_1_57
*1220 FILLER_1_69
*1221 FILLER_1_81
*1222 FILLER_1_91
*1223 FILLER_1_99
*1224 FILLER_20_13
*1225 FILLER_20_17
*1226 FILLER_20_21
*1227 FILLER_20_27
*1228 FILLER_20_29
*1229 FILLER_20_37
*1230 FILLER_20_49
*1231 FILLER_20_61
*1232 FILLER_20_73
*1233 FILLER_20_81
*1234 FILLER_20_85
*1235 FILLER_20_93
*1236 FILLER_20_99
*1237 FILLER_21_101
*1238 FILLER_21_11
*1239 FILLER_21_18
*1240 FILLER_21_25
*1241 FILLER_21_3
*1242 FILLER_21_32
*1243 FILLER_21_39
*1244 FILLER_21_51
*1245 FILLER_21_55
*1246 FILLER_21_57
*1247 FILLER_21_69
*1248 FILLER_21_81
*1249 FILLER_21_93
*1250 FILLER_22_14
*1251 FILLER_22_20
*1252 FILLER_22_24
*1253 FILLER_22_3
*1254 FILLER_22_32
*1255 FILLER_22_39
*1256 FILLER_22_51
*1257 FILLER_22_63
*1258 FILLER_22_75
*1259 FILLER_22_83
*1260 FILLER_22_85
*1261 FILLER_22_93
*1262 FILLER_22_99
*1263 FILLER_23_18
*1264 FILLER_23_27
*1265 FILLER_23_39
*1266 FILLER_23_51
*1267 FILLER_23_55
*1268 FILLER_23_57
*1269 FILLER_23_69
*1270 FILLER_23_81
*1271 FILLER_23_87
*1272 FILLER_23_9
*1273 FILLER_23_91
*1274 FILLER_23_99
*1275 FILLER_24_19
*1276 FILLER_24_27
*1277 FILLER_24_29
*1278 FILLER_24_41
*1279 FILLER_24_53
*1280 FILLER_24_6
*1281 FILLER_24_65
*1282 FILLER_24_77
*1283 FILLER_24_83
*1284 FILLER_24_85
*1285 FILLER_24_93
*1286 FILLER_24_99
*1287 FILLER_25_10
*1288 FILLER_25_17
*1289 FILLER_25_24
*1290 FILLER_25_3
*1291 FILLER_25_36
*1292 FILLER_25_48
*1293 FILLER_25_57
*1294 FILLER_25_69
*1295 FILLER_25_81
*1296 FILLER_25_87
*1297 FILLER_25_91
*1298 FILLER_25_99
*1299 FILLER_26_14
*1300 FILLER_26_22
*1301 FILLER_26_29
*1302 FILLER_26_41
*1303 FILLER_26_53
*1304 FILLER_26_6
*1305 FILLER_26_65
*1306 FILLER_26_77
*1307 FILLER_26_83
*1308 FILLER_26_85
*1309 FILLER_26_91
*1310 FILLER_26_99
*1311 FILLER_27_13
*1312 FILLER_27_20
*1313 FILLER_27_32
*1314 FILLER_27_44
*1315 FILLER_27_57
*1316 FILLER_27_6
*1317 FILLER_27_69
*1318 FILLER_27_81
*1319 FILLER_27_93
*1320 FILLER_27_99
*1321 FILLER_28_102
*1322 FILLER_28_20
*1323 FILLER_28_29
*1324 FILLER_28_3
*1325 FILLER_28_41
*1326 FILLER_28_53
*1327 FILLER_28_65
*1328 FILLER_28_77
*1329 FILLER_28_83
*1330 FILLER_28_85
*1331 FILLER_28_9
*1332 FILLER_28_93
*1333 FILLER_28_98
*1334 FILLER_29_13
*1335 FILLER_29_20
*1336 FILLER_29_32
*1337 FILLER_29_44
*1338 FILLER_29_57
*1339 FILLER_29_6
*1340 FILLER_29_69
*1341 FILLER_29_81
*1342 FILLER_29_93
*1343 FILLER_29_99
*1344 FILLER_2_14
*1345 FILLER_2_23
*1346 FILLER_2_27
*1347 FILLER_2_29
*1348 FILLER_2_41
*1349 FILLER_2_53
*1350 FILLER_2_65
*1351 FILLER_2_7
*1352 FILLER_2_77
*1353 FILLER_2_83
*1354 FILLER_2_85
*1355 FILLER_2_93
*1356 FILLER_2_99
*1357 FILLER_30_10
*1358 FILLER_30_17
*1359 FILLER_30_24
*1360 FILLER_30_29
*1361 FILLER_30_3
*1362 FILLER_30_41
*1363 FILLER_30_53
*1364 FILLER_30_65
*1365 FILLER_30_77
*1366 FILLER_30_83
*1367 FILLER_30_85
*1368 FILLER_30_91
*1369 FILLER_30_99
*1370 FILLER_31_15
*1371 FILLER_31_22
*1372 FILLER_31_34
*1373 FILLER_31_46
*1374 FILLER_31_54
*1375 FILLER_31_57
*1376 FILLER_31_6
*1377 FILLER_31_69
*1378 FILLER_31_81
*1379 FILLER_31_93
*1380 FILLER_31_99
*1381 FILLER_32_11
*1382 FILLER_32_18
*1383 FILLER_32_26
*1384 FILLER_32_29
*1385 FILLER_32_3
*1386 FILLER_32_37
*1387 FILLER_32_49
*1388 FILLER_32_61
*1389 FILLER_32_7
*1390 FILLER_32_73
*1391 FILLER_32_81
*1392 FILLER_32_85
*1393 FILLER_32_93
*1394 FILLER_32_99
*1395 FILLER_33_19
*1396 FILLER_33_26
*1397 FILLER_33_3
*1398 FILLER_33_33
*1399 FILLER_33_45
*1400 FILLER_33_53
*1401 FILLER_33_57
*1402 FILLER_33_69
*1403 FILLER_33_7
*1404 FILLER_33_81
*1405 FILLER_33_87
*1406 FILLER_33_91
*1407 FILLER_33_99
*1408 FILLER_34_11
*1409 FILLER_34_20
*1410 FILLER_34_3
*1411 FILLER_34_32
*1412 FILLER_34_44
*1413 FILLER_34_56
*1414 FILLER_34_68
*1415 FILLER_34_7
*1416 FILLER_34_80
*1417 FILLER_34_85
*1418 FILLER_34_93
*1419 FILLER_34_99
*1420 FILLER_35_10
*1421 FILLER_35_101
*1422 FILLER_35_14
*1423 FILLER_35_24
*1424 FILLER_35_3
*1425 FILLER_35_31
*1426 FILLER_35_43
*1427 FILLER_35_55
*1428 FILLER_35_57
*1429 FILLER_35_69
*1430 FILLER_35_81
*1431 FILLER_35_93
*1432 FILLER_36_13
*1433 FILLER_36_20
*1434 FILLER_36_3
*1435 FILLER_36_32
*1436 FILLER_36_44
*1437 FILLER_36_56
*1438 FILLER_36_68
*1439 FILLER_36_80
*1440 FILLER_36_85
*1441 FILLER_36_93
*1442 FILLER_36_99
*1443 FILLER_37_16
*1444 FILLER_37_23
*1445 FILLER_37_3
*1446 FILLER_37_35
*1447 FILLER_37_47
*1448 FILLER_37_55
*1449 FILLER_37_57
*1450 FILLER_37_69
*1451 FILLER_37_81
*1452 FILLER_37_9
*1453 FILLER_37_93
*1454 FILLER_37_99
*1455 FILLER_38_15
*1456 FILLER_38_23
*1457 FILLER_38_27
*1458 FILLER_38_29
*1459 FILLER_38_41
*1460 FILLER_38_53
*1461 FILLER_38_65
*1462 FILLER_38_7
*1463 FILLER_38_77
*1464 FILLER_38_83
*1465 FILLER_38_85
*1466 FILLER_38_92
*1467 FILLER_38_99
*1468 FILLER_39_16
*1469 FILLER_39_28
*1470 FILLER_39_40
*1471 FILLER_39_52
*1472 FILLER_39_57
*1473 FILLER_39_6
*1474 FILLER_39_69
*1475 FILLER_39_81
*1476 FILLER_39_93
*1477 FILLER_39_99
*1478 FILLER_3_101
*1479 FILLER_3_12
*1480 FILLER_3_20
*1481 FILLER_3_27
*1482 FILLER_3_3
*1483 FILLER_3_34
*1484 FILLER_3_46
*1485 FILLER_3_54
*1486 FILLER_3_57
*1487 FILLER_3_69
*1488 FILLER_3_7
*1489 FILLER_3_81
*1490 FILLER_3_93
*1491 FILLER_40_16
*1492 FILLER_40_23
*1493 FILLER_40_27
*1494 FILLER_40_29
*1495 FILLER_40_41
*1496 FILLER_40_53
*1497 FILLER_40_6
*1498 FILLER_40_65
*1499 FILLER_40_77
*1500 FILLER_40_83
*1501 FILLER_40_85
*1502 FILLER_40_93
*1503 FILLER_40_99
*1504 FILLER_41_14
*1505 FILLER_41_26
*1506 FILLER_41_38
*1507 FILLER_41_50
*1508 FILLER_41_57
*1509 FILLER_41_6
*1510 FILLER_41_69
*1511 FILLER_41_81
*1512 FILLER_41_93
*1513 FILLER_41_99
*1514 FILLER_42_17
*1515 FILLER_42_24
*1516 FILLER_42_29
*1517 FILLER_42_3
*1518 FILLER_42_41
*1519 FILLER_42_53
*1520 FILLER_42_65
*1521 FILLER_42_77
*1522 FILLER_42_83
*1523 FILLER_42_85
*1524 FILLER_42_9
*1525 FILLER_42_93
*1526 FILLER_42_99
*1527 FILLER_43_101
*1528 FILLER_43_12
*1529 FILLER_43_19
*1530 FILLER_43_3
*1531 FILLER_43_31
*1532 FILLER_43_43
*1533 FILLER_43_55
*1534 FILLER_43_57
*1535 FILLER_43_69
*1536 FILLER_43_7
*1537 FILLER_43_81
*1538 FILLER_43_93
*1539 FILLER_44_13
*1540 FILLER_44_19
*1541 FILLER_44_23
*1542 FILLER_44_27
*1543 FILLER_44_32
*1544 FILLER_44_44
*1545 FILLER_44_56
*1546 FILLER_44_6
*1547 FILLER_44_68
*1548 FILLER_44_80
*1549 FILLER_44_85
*1550 FILLER_44_97
*1551 FILLER_45_18
*1552 FILLER_45_26
*1553 FILLER_45_3
*1554 FILLER_45_33
*1555 FILLER_45_40
*1556 FILLER_45_52
*1557 FILLER_45_57
*1558 FILLER_45_69
*1559 FILLER_45_81
*1560 FILLER_45_9
*1561 FILLER_45_93
*1562 FILLER_45_99
*1563 FILLER_46_15
*1564 FILLER_46_24
*1565 FILLER_46_32
*1566 FILLER_46_44
*1567 FILLER_46_56
*1568 FILLER_46_6
*1569 FILLER_46_68
*1570 FILLER_46_80
*1571 FILLER_46_85
*1572 FILLER_46_93
*1573 FILLER_46_99
*1574 FILLER_47_101
*1575 FILLER_47_17
*1576 FILLER_47_25
*1577 FILLER_47_3
*1578 FILLER_47_32
*1579 FILLER_47_44
*1580 FILLER_47_57
*1581 FILLER_47_69
*1582 FILLER_47_8
*1583 FILLER_47_81
*1584 FILLER_47_93
*1585 FILLER_48_11
*1586 FILLER_48_19
*1587 FILLER_48_27
*1588 FILLER_48_3
*1589 FILLER_48_32
*1590 FILLER_48_44
*1591 FILLER_48_56
*1592 FILLER_48_68
*1593 FILLER_48_80
*1594 FILLER_48_85
*1595 FILLER_48_97
*1596 FILLER_49_14
*1597 FILLER_49_23
*1598 FILLER_49_3
*1599 FILLER_49_30
*1600 FILLER_49_42
*1601 FILLER_49_54
*1602 FILLER_49_57
*1603 FILLER_49_69
*1604 FILLER_49_81
*1605 FILLER_49_93
*1606 FILLER_49_99
*1607 FILLER_4_13
*1608 FILLER_4_17
*1609 FILLER_4_24
*1610 FILLER_4_32
*1611 FILLER_4_44
*1612 FILLER_4_56
*1613 FILLER_4_68
*1614 FILLER_4_7
*1615 FILLER_4_80
*1616 FILLER_4_85
*1617 FILLER_4_93
*1618 FILLER_4_99
*1619 FILLER_50_15
*1620 FILLER_50_22
*1621 FILLER_50_29
*1622 FILLER_50_3
*1623 FILLER_50_41
*1624 FILLER_50_53
*1625 FILLER_50_65
*1626 FILLER_50_77
*1627 FILLER_50_8
*1628 FILLER_50_83
*1629 FILLER_50_85
*1630 FILLER_50_97
*1631 FILLER_51_14
*1632 FILLER_51_21
*1633 FILLER_51_3
*1634 FILLER_51_33
*1635 FILLER_51_45
*1636 FILLER_51_53
*1637 FILLER_51_57
*1638 FILLER_51_69
*1639 FILLER_51_7
*1640 FILLER_51_81
*1641 FILLER_51_93
*1642 FILLER_51_99
*1643 FILLER_52_14
*1644 FILLER_52_26
*1645 FILLER_52_29
*1646 FILLER_52_41
*1647 FILLER_52_53
*1648 FILLER_52_65
*1649 FILLER_52_7
*1650 FILLER_52_77
*1651 FILLER_52_83
*1652 FILLER_52_85
*1653 FILLER_52_93
*1654 FILLER_52_99
*1655 FILLER_53_16
*1656 FILLER_53_28
*1657 FILLER_53_3
*1658 FILLER_53_40
*1659 FILLER_53_52
*1660 FILLER_53_57
*1661 FILLER_53_69
*1662 FILLER_53_8
*1663 FILLER_53_81
*1664 FILLER_53_93
*1665 FILLER_53_99
*1666 FILLER_54_16
*1667 FILLER_54_3
*1668 FILLER_54_32
*1669 FILLER_54_44
*1670 FILLER_54_56
*1671 FILLER_54_68
*1672 FILLER_54_8
*1673 FILLER_54_80
*1674 FILLER_54_85
*1675 FILLER_54_93
*1676 FILLER_54_99
*1677 FILLER_55_15
*1678 FILLER_55_26
*1679 FILLER_55_38
*1680 FILLER_55_50
*1681 FILLER_55_57
*1682 FILLER_55_6
*1683 FILLER_55_69
*1684 FILLER_55_81
*1685 FILLER_55_93
*1686 FILLER_55_99
*1687 FILLER_56_15
*1688 FILLER_56_22
*1689 FILLER_56_32
*1690 FILLER_56_44
*1691 FILLER_56_56
*1692 FILLER_56_68
*1693 FILLER_56_7
*1694 FILLER_56_80
*1695 FILLER_56_85
*1696 FILLER_56_97
*1697 FILLER_57_11
*1698 FILLER_57_17
*1699 FILLER_57_24
*1700 FILLER_57_36
*1701 FILLER_57_48
*1702 FILLER_57_57
*1703 FILLER_57_69
*1704 FILLER_57_7
*1705 FILLER_57_81