*SPEF "ieee 1481-1999"
*DESIGN "wb_openram_wrapper"
*DATE "11:11:11 Fri 11 11, 1111"
*VENDOR "OpenRCX"
*PROGRAM "Parallel Extraction"
*VERSION "1.0"
*DESIGN_FLOW "NAME_SCOPE LOCAL" "PIN_CAP NONE"
*DIVIDER /
*DELIMITER :
*BUS_DELIMITER []
*T_UNIT 1 NS
*C_UNIT 1 PF
*R_UNIT 1 OHM
*L_UNIT 1 HENRY

*NAME_MAP
*1 ram_addr0[0]
*2 ram_addr0[1]
*3 ram_addr0[2]
*4 ram_addr0[3]
*5 ram_addr0[4]
*6 ram_addr0[5]
*7 ram_addr0[6]
*8 ram_addr0[7]
*9 ram_addr1[0]
*10 ram_addr1[1]
*11 ram_addr1[2]
*12 ram_addr1[3]
*13 ram_addr1[4]
*14 ram_addr1[5]
*15 ram_addr1[6]
*16 ram_addr1[7]
*17 ram_clk0
*18 ram_clk1
*19 ram_csb0
*20 ram_csb1
*21 ram_din0[0]
*22 ram_din0[10]
*23 ram_din0[11]
*24 ram_din0[12]
*25 ram_din0[13]
*26 ram_din0[14]
*27 ram_din0[15]
*28 ram_din0[16]
*29 ram_din0[17]
*30 ram_din0[18]
*31 ram_din0[19]
*32 ram_din0[1]
*33 ram_din0[20]
*34 ram_din0[21]
*35 ram_din0[22]
*36 ram_din0[23]
*37 ram_din0[24]
*38 ram_din0[25]
*39 ram_din0[26]
*40 ram_din0[27]
*41 ram_din0[28]
*42 ram_din0[29]
*43 ram_din0[2]
*44 ram_din0[30]
*45 ram_din0[31]
*46 ram_din0[3]
*47 ram_din0[4]
*48 ram_din0[5]
*49 ram_din0[6]
*50 ram_din0[7]
*51 ram_din0[8]
*52 ram_din0[9]
*53 ram_dout0[0]
*54 ram_dout0[10]
*55 ram_dout0[11]
*56 ram_dout0[12]
*57 ram_dout0[13]
*58 ram_dout0[14]
*59 ram_dout0[15]
*60 ram_dout0[16]
*61 ram_dout0[17]
*62 ram_dout0[18]
*63 ram_dout0[19]
*64 ram_dout0[1]
*65 ram_dout0[20]
*66 ram_dout0[21]
*67 ram_dout0[22]
*68 ram_dout0[23]
*69 ram_dout0[24]
*70 ram_dout0[25]
*71 ram_dout0[26]
*72 ram_dout0[27]
*73 ram_dout0[28]
*74 ram_dout0[29]
*75 ram_dout0[2]
*76 ram_dout0[30]
*77 ram_dout0[31]
*78 ram_dout0[3]
*79 ram_dout0[4]
*80 ram_dout0[5]
*81 ram_dout0[6]
*82 ram_dout0[7]
*83 ram_dout0[8]
*84 ram_dout0[9]
*85 ram_dout1[0]
*86 ram_dout1[10]
*87 ram_dout1[11]
*88 ram_dout1[12]
*89 ram_dout1[13]
*90 ram_dout1[14]
*91 ram_dout1[15]
*92 ram_dout1[16]
*93 ram_dout1[17]
*94 ram_dout1[18]
*95 ram_dout1[19]
*96 ram_dout1[1]
*97 ram_dout1[20]
*98 ram_dout1[21]
*99 ram_dout1[22]
*100 ram_dout1[23]
*101 ram_dout1[24]
*102 ram_dout1[25]
*103 ram_dout1[26]
*104 ram_dout1[27]
*105 ram_dout1[28]
*106 ram_dout1[29]
*107 ram_dout1[2]
*108 ram_dout1[30]
*109 ram_dout1[31]
*110 ram_dout1[3]
*111 ram_dout1[4]
*112 ram_dout1[5]
*113 ram_dout1[6]
*114 ram_dout1[7]
*115 ram_dout1[8]
*116 ram_dout1[9]
*117 ram_web0
*118 ram_wmask0[0]
*119 ram_wmask0[1]
*120 ram_wmask0[2]
*121 ram_wmask0[3]
*124 wb_a_clk_i
*125 wb_a_rst_i
*126 wb_b_clk_i
*127 wb_b_rst_i
*128 wbs_a_ack_o
*129 wbs_a_adr_i[0]
*130 wbs_a_adr_i[1]
*131 wbs_a_adr_i[2]
*132 wbs_a_adr_i[3]
*133 wbs_a_adr_i[4]
*134 wbs_a_adr_i[5]
*135 wbs_a_adr_i[6]
*136 wbs_a_adr_i[7]
*137 wbs_a_adr_i[8]
*138 wbs_a_adr_i[9]
*139 wbs_a_cyc_i
*140 wbs_a_dat_i[0]
*141 wbs_a_dat_i[10]
*142 wbs_a_dat_i[11]
*143 wbs_a_dat_i[12]
*144 wbs_a_dat_i[13]
*145 wbs_a_dat_i[14]
*146 wbs_a_dat_i[15]
*147 wbs_a_dat_i[16]
*148 wbs_a_dat_i[17]
*149 wbs_a_dat_i[18]
*150 wbs_a_dat_i[19]
*151 wbs_a_dat_i[1]
*152 wbs_a_dat_i[20]
*153 wbs_a_dat_i[21]
*154 wbs_a_dat_i[22]
*155 wbs_a_dat_i[23]
*156 wbs_a_dat_i[24]
*157 wbs_a_dat_i[25]
*158 wbs_a_dat_i[26]
*159 wbs_a_dat_i[27]
*160 wbs_a_dat_i[28]
*161 wbs_a_dat_i[29]
*162 wbs_a_dat_i[2]
*163 wbs_a_dat_i[30]
*164 wbs_a_dat_i[31]
*165 wbs_a_dat_i[3]
*166 wbs_a_dat_i[4]
*167 wbs_a_dat_i[5]
*168 wbs_a_dat_i[6]
*169 wbs_a_dat_i[7]
*170 wbs_a_dat_i[8]
*171 wbs_a_dat_i[9]
*172 wbs_a_dat_o[0]
*173 wbs_a_dat_o[10]
*174 wbs_a_dat_o[11]
*175 wbs_a_dat_o[12]
*176 wbs_a_dat_o[13]
*177 wbs_a_dat_o[14]
*178 wbs_a_dat_o[15]
*179 wbs_a_dat_o[16]
*180 wbs_a_dat_o[17]
*181 wbs_a_dat_o[18]
*182 wbs_a_dat_o[19]
*183 wbs_a_dat_o[1]
*184 wbs_a_dat_o[20]
*185 wbs_a_dat_o[21]
*186 wbs_a_dat_o[22]
*187 wbs_a_dat_o[23]
*188 wbs_a_dat_o[24]
*189 wbs_a_dat_o[25]
*190 wbs_a_dat_o[26]
*191 wbs_a_dat_o[27]
*192 wbs_a_dat_o[28]
*193 wbs_a_dat_o[29]
*194 wbs_a_dat_o[2]
*195 wbs_a_dat_o[30]
*196 wbs_a_dat_o[31]
*197 wbs_a_dat_o[3]
*198 wbs_a_dat_o[4]
*199 wbs_a_dat_o[5]
*200 wbs_a_dat_o[6]
*201 wbs_a_dat_o[7]
*202 wbs_a_dat_o[8]
*203 wbs_a_dat_o[9]
*204 wbs_a_sel_i[0]
*205 wbs_a_sel_i[1]
*206 wbs_a_sel_i[2]
*207 wbs_a_sel_i[3]
*208 wbs_a_stb_i
*209 wbs_a_we_i
*210 wbs_b_ack_o
*211 wbs_b_adr_i[0]
*212 wbs_b_adr_i[1]
*213 wbs_b_adr_i[2]
*214 wbs_b_adr_i[3]
*215 wbs_b_adr_i[4]
*216 wbs_b_adr_i[5]
*217 wbs_b_adr_i[6]
*218 wbs_b_adr_i[7]
*219 wbs_b_adr_i[8]
*220 wbs_b_adr_i[9]
*221 wbs_b_cyc_i
*222 wbs_b_dat_i[0]
*223 wbs_b_dat_i[10]
*224 wbs_b_dat_i[11]
*225 wbs_b_dat_i[12]
*226 wbs_b_dat_i[13]
*227 wbs_b_dat_i[14]
*228 wbs_b_dat_i[15]
*229 wbs_b_dat_i[16]
*230 wbs_b_dat_i[17]
*231 wbs_b_dat_i[18]
*232 wbs_b_dat_i[19]
*233 wbs_b_dat_i[1]
*234 wbs_b_dat_i[20]
*235 wbs_b_dat_i[21]
*236 wbs_b_dat_i[22]
*237 wbs_b_dat_i[23]
*238 wbs_b_dat_i[24]
*239 wbs_b_dat_i[25]
*240 wbs_b_dat_i[26]
*241 wbs_b_dat_i[27]
*242 wbs_b_dat_i[28]
*243 wbs_b_dat_i[29]
*244 wbs_b_dat_i[2]
*245 wbs_b_dat_i[30]
*246 wbs_b_dat_i[31]
*247 wbs_b_dat_i[3]
*248 wbs_b_dat_i[4]
*249 wbs_b_dat_i[5]
*250 wbs_b_dat_i[6]
*251 wbs_b_dat_i[7]
*252 wbs_b_dat_i[8]
*253 wbs_b_dat_i[9]
*254 wbs_b_dat_o[0]
*255 wbs_b_dat_o[10]
*256 wbs_b_dat_o[11]
*257 wbs_b_dat_o[12]
*258 wbs_b_dat_o[13]
*259 wbs_b_dat_o[14]
*260 wbs_b_dat_o[15]
*261 wbs_b_dat_o[16]
*262 wbs_b_dat_o[17]
*263 wbs_b_dat_o[18]
*264 wbs_b_dat_o[19]
*265 wbs_b_dat_o[1]
*266 wbs_b_dat_o[20]
*267 wbs_b_dat_o[21]
*268 wbs_b_dat_o[22]
*269 wbs_b_dat_o[23]
*270 wbs_b_dat_o[24]
*271 wbs_b_dat_o[25]
*272 wbs_b_dat_o[26]
*273 wbs_b_dat_o[27]
*274 wbs_b_dat_o[28]
*275 wbs_b_dat_o[29]
*276 wbs_b_dat_o[2]
*277 wbs_b_dat_o[30]
*278 wbs_b_dat_o[31]
*279 wbs_b_dat_o[3]
*280 wbs_b_dat_o[4]
*281 wbs_b_dat_o[5]
*282 wbs_b_dat_o[6]
*283 wbs_b_dat_o[7]
*284 wbs_b_dat_o[8]
*285 wbs_b_dat_o[9]
*286 wbs_b_sel_i[0]
*287 wbs_b_sel_i[1]
*288 wbs_b_sel_i[2]
*289 wbs_b_sel_i[3]
*290 wbs_b_stb_i
*291 wbs_b_we_i
*292 writable_port_req
*293 _000_
*294 _001_
*295 _002_
*296 _003_
*297 _004_
*298 _005_
*299 _006_
*300 _007_
*301 _008_
*302 _009_
*303 _012_
*304 _013_
*305 _014_
*306 _015_
*307 _016_
*308 _017_
*309 _018_
*310 _019_
*311 _020_
*312 _021_
*313 _022_
*314 _023_
*315 _024_
*316 clknet_0_wb_a_clk_i
*317 clknet_0_wb_b_clk_i
*318 clknet_1_0_0_wb_a_clk_i
*319 clknet_1_0_0_wb_b_clk_i
*320 clknet_1_1_0_wb_a_clk_i
*321 clknet_1_1_0_wb_b_clk_i
*322 net1
*323 net10
*324 net100
*325 net101
*326 net102
*327 net103
*328 net104
*329 net105
*330 net106
*331 net107
*332 net108
*333 net109
*334 net11
*335 net110
*336 net111
*337 net112
*338 net113
*339 net114
*340 net115
*341 net116
*342 net117
*343 net118
*344 net119
*345 net12
*346 net120
*347 net121
*348 net122
*349 net123
*350 net124
*351 net125
*352 net126
*353 net127
*354 net128
*355 net129
*356 net13
*357 net130
*358 net131
*359 net132
*360 net133
*361 net134
*362 net135
*363 net136
*364 net137
*365 net138
*366 net139
*367 net14
*368 net140
*369 net141
*370 net142
*371 net143
*372 net144
*373 net145
*374 net146
*375 net147
*376 net148
*377 net149
*378 net15
*379 net150
*380 net151
*381 net152
*382 net153
*383 net154
*384 net155
*385 net156
*386 net157
*387 net158
*388 net159
*389 net16
*390 net160
*391 net161
*392 net162
*393 net163
*394 net164
*395 net165
*396 net166
*397 net167
*398 net168
*399 net169
*400 net17
*401 net170
*402 net171
*403 net172
*404 net173
*405 net174
*406 net175
*407 net176
*408 net177
*409 net178
*410 net179
*411 net18
*412 net180
*413 net181
*414 net182
*415 net183
*416 net184
*417 net185
*418 net186
*419 net187
*420 net188
*421 net189
*422 net19
*423 net190
*424 net191
*425 net192
*426 net193
*427 net194
*428 net195
*429 net196
*430 net197
*431 net198
*432 net199
*433 net2
*434 net20
*435 net200
*436 net201
*437 net202
*438 net203
*439 net204
*440 net205
*441 net206
*442 net207
*443 net208
*444 net209
*445 net21
*446 net210
*447 net211
*448 net212
*449 net213
*450 net214
*451 net215
*452 net216
*453 net217
*454 net218
*455 net219
*456 net22
*457 net220
*458 net221
*459 net222
*460 net223
*461 net224
*462 net225
*463 net226
*464 net227
*465 net228
*466 net229
*467 net23
*468 net230
*469 net231
*470 net232
*471 net233
*472 net234
*473 net235
*474 net236
*475 net237
*476 net238
*477 net239
*478 net24
*479 net240
*480 net241
*481 net242
*482 net243
*483 net244
*484 net245
*485 net246
*486 net247
*487 net248
*488 net249
*489 net25
*490 net250
*491 net251
*492 net252
*493 net253
*494 net254
*495 net255
*496 net256
*497 net257
*498 net258
*499 net259
*500 net26
*501 net260
*502 net261
*503 net262
*504 net263
*505 net264
*506 net265
*507 net266
*508 net267
*509 net268
*510 net269
*511 net27
*512 net270
*513 net271
*514 net272
*515 net273
*516 net274
*517 net275
*518 net276
*519 net277
*520 net278
*521 net279
*522 net28
*523 net280
*524 net281
*525 net282
*526 net283
*527 net284
*528 net285
*529 net286
*530 net287
*531 net288
*532 net29
*533 net3
*534 net30
*535 net31
*536 net32
*537 net33
*538 net34
*539 net35
*540 net36
*541 net37
*542 net38
*543 net39
*544 net4
*545 net40
*546 net41
*547 net42
*548 net43
*549 net44
*550 net45
*551 net46
*552 net47
*553 net48
*554 net49
*555 net5
*556 net50
*557 net51
*558 net52
*559 net53
*560 net54
*561 net55
*562 net56
*563 net57
*564 net58
*565 net59
*566 net6
*567 net60
*568 net61
*569 net62
*570 net63
*571 net64
*572 net65
*573 net66
*574 net67
*575 net68
*576 net69
*577 net7
*578 net70
*579 net71
*580 net72
*581 net73
*582 net74
*583 net75
*584 net76
*585 net77
*586 net78
*587 net79
*588 net8
*589 net80
*590 net81
*591 net82
*592 net83
*593 net84
*594 net85
*595 net86
*596 net87
*597 net88
*598 net89
*599 net9
*600 net90
*601 net91
*602 net92
*603 net93
*604 net94
*605 net95
*606 net96
*607 net97
*608 net98
*609 net99
*610 port0_rw\.port_cs_r
*611 port0_rw\.port_wbs_ack_r
*612 port0_rw\.wb_rst_i
*613 port1_r\.port_cs_r
*614 port1_r\.port_wbs_ack_r
*615 port1_r\.wb_rst_i
*616 ANTENNA_0
*617 ANTENNA_1
*618 ANTENNA_10
*619 ANTENNA_11
*620 ANTENNA_12
*621 ANTENNA_13
*622 ANTENNA_14
*623 ANTENNA_15
*624 ANTENNA_16
*625 ANTENNA_17
*626 ANTENNA_18
*627 ANTENNA_19
*628 ANTENNA_2
*629 ANTENNA_20
*630 ANTENNA_21
*631 ANTENNA_22
*632 ANTENNA_23
*633 ANTENNA_24
*634 ANTENNA_25
*635 ANTENNA_26
*636 ANTENNA_27
*637 ANTENNA_28
*638 ANTENNA_29
*639 ANTENNA_3
*640 ANTENNA_30
*641 ANTENNA_31
*642 ANTENNA_32
*643 ANTENNA_33
*644 ANTENNA_34
*645 ANTENNA_35
*646 ANTENNA_36
*647 ANTENNA_37
*648 ANTENNA_38
*649 ANTENNA_39
*650 ANTENNA_4
*651 ANTENNA_40
*652 ANTENNA_41
*653 ANTENNA_42
*654 ANTENNA_43
*655 ANTENNA_44
*656 ANTENNA_45
*657 ANTENNA_46
*658 ANTENNA_5
*659 ANTENNA_6
*660 ANTENNA_7
*661 ANTENNA_8
*662 ANTENNA_9
*663 FILLER_0_15
*664 FILLER_0_22
*665 FILLER_0_29
*666 FILLER_0_41
*667 FILLER_0_53
*668 FILLER_0_57
*669 FILLER_0_69
*670 FILLER_0_7
*671 FILLER_0_80
*672 FILLER_0_85
*673 FILLER_0_99
*674 FILLER_100_19
*675 FILLER_100_27
*676 FILLER_100_29
*677 FILLER_100_41
*678 FILLER_100_53
*679 FILLER_100_65
*680 FILLER_100_7
*681 FILLER_100_77
*682 FILLER_100_83
*683 FILLER_100_85
*684 FILLER_100_89
*685 FILLER_100_99
*686 FILLER_101_19
*687 FILLER_101_31
*688 FILLER_101_43
*689 FILLER_101_55
*690 FILLER_101_57
*691 FILLER_101_69
*692 FILLER_101_7
*693 FILLER_101_81
*694 FILLER_101_91
*695 FILLER_101_99
*696 FILLER_102_19
*697 FILLER_102_27
*698 FILLER_102_29
*699 FILLER_102_41
*700 FILLER_102_53
*701 FILLER_102_65
*702 FILLER_102_7
*703 FILLER_102_77
*704 FILLER_102_83
*705 FILLER_102_85
*706 FILLER_102_99
*707 FILLER_103_19
*708 FILLER_103_31
*709 FILLER_103_43
*710 FILLER_103_55
*711 FILLER_103_57
*712 FILLER_103_69
*713 FILLER_103_7
*714 FILLER_103_81
*715 FILLER_103_93
*716 FILLER_103_99
*717 FILLER_104_15
*718 FILLER_104_27
*719 FILLER_104_29
*720 FILLER_104_3
*721 FILLER_104_41
*722 FILLER_104_53
*723 FILLER_104_65
*724 FILLER_104_77
*725 FILLER_104_83
*726 FILLER_104_85
*727 FILLER_104_93
*728 FILLER_104_99
*729 FILLER_105_11
*730 FILLER_105_23
*731 FILLER_105_3
*732 FILLER_105_35
*733 FILLER_105_47
*734 FILLER_105_55
*735 FILLER_105_57
*736 FILLER_105_69
*737 FILLER_105_81
*738 FILLER_105_91
*739 FILLER_105_99
*740 FILLER_106_11
*741 FILLER_106_23
*742 FILLER_106_27
*743 FILLER_106_29
*744 FILLER_106_3
*745 FILLER_106_41
*746 FILLER_106_53
*747 FILLER_106_65
*748 FILLER_106_80
*749 FILLER_106_85
*750 FILLER_106_93
*751 FILLER_106_99
*752 FILLER_107_13
*753 FILLER_107_21
*754 FILLER_107_3
*755 FILLER_107_33
*756 FILLER_107_45
*757 FILLER_107_53
*758 FILLER_107_57
*759 FILLER_107_69
*760 FILLER_107_85
*761 FILLER_107_99
*762 FILLER_108_21
*763 FILLER_108_27
*764 FILLER_108_29
*765 FILLER_108_3
*766 FILLER_108_41
*767 FILLER_108_53
*768 FILLER_108_65
*769 FILLER_108_77
*770 FILLER_108_83
*771 FILLER_108_85
*772 FILLER_108_99
*773 FILLER_109_11
*774 FILLER_109_23
*775 FILLER_109_3
*776 FILLER_109_35
*777 FILLER_109_47
*778 FILLER_109_55
*779 FILLER_109_57
*780 FILLER_109_69
*781 FILLER_109_81
*782 FILLER_109_99
*783 FILLER_10_19
*784 FILLER_10_27
*785 FILLER_10_29
*786 FILLER_10_41
*787 FILLER_10_53
*788 FILLER_10_65
*789 FILLER_10_7
*790 FILLER_10_77
*791 FILLER_10_83
*792 FILLER_10_85
*793 FILLER_10_99
*794 FILLER_110_11
*795 FILLER_110_23
*796 FILLER_110_27
*797 FILLER_110_29
*798 FILLER_110_3
*799 FILLER_110_41
*800 FILLER_110_53
*801 FILLER_110_65
*802 FILLER_110_80
*803 FILLER_110_85
*804 FILLER_110_99
*805 FILLER_111_18
*806 FILLER_111_3
*807 FILLER_111_30
*808 FILLER_111_42
*809 FILLER_111_54
*810 FILLER_111_57
*811 FILLER_111_65
*812 FILLER_111_76
*813 FILLER_111_82
*814 FILLER_111_92
*815 FILLER_111_99
*816 FILLER_112_24
*817 FILLER_112_29
*818 FILLER_112_41
*819 FILLER_112_53
*820 FILLER_112_65
*821 FILLER_112_7
*822 FILLER_112_77
*823 FILLER_112_83
*824 FILLER_112_85
*825 FILLER_112_92
*826 FILLER_112_99
*827 FILLER_113_19
*828 FILLER_113_31
*829 FILLER_113_43
*830 FILLER_113_55
*831 FILLER_113_57
*832 FILLER_113_69
*833 FILLER_113_7
*834 FILLER_113_81
*835 FILLER_113_92
*836 FILLER_113_99
*837 FILLER_114_19
*838 FILLER_114_27
*839 FILLER_114_29
*840 FILLER_114_41
*841 FILLER_114_53
*842 FILLER_114_65
*843 FILLER_114_7
*844 FILLER_114_77
*845 FILLER_114_83
*846 FILLER_114_85
*847 FILLER_114_99
*848 FILLER_115_11
*849 FILLER_115_23
*850 FILLER_115_3
*851 FILLER_115_35
*852 FILLER_115_47
*853 FILLER_115_55
*854 FILLER_115_57
*855 FILLER_115_65
*856 FILLER_115_76
*857 FILLER_115_80
*858 FILLER_115_84
*859 FILLER_115_91
*860 FILLER_115_99
*861 FILLER_116_13
*862 FILLER_116_25
*863 FILLER_116_29
*864 FILLER_116_41
*865 FILLER_116_53
*866 FILLER_116_6
*867 FILLER_116_65
*868 FILLER_116_77
*869 FILLER_116_83
*870 FILLER_116_85
*871 FILLER_116_99
*872 FILLER_117_15
*873 FILLER_117_28
*874 FILLER_117_40
*875 FILLER_117_52
*876 FILLER_117_57
*877 FILLER_117_69
*878 FILLER_117_81
*879 FILLER_117_91
*880 FILLER_117_99
*881 FILLER_118_19
*882 FILLER_118_27
*883 FILLER_118_29
*884 FILLER_118_3
*885 FILLER_118_41
*886 FILLER_118_53
*887 FILLER_118_61
*888 FILLER_118_74
*889 FILLER_118_82
*890 FILLER_118_85
*891 FILLER_118_99
*892 FILLER_119_12
*893 FILLER_119_19
*894 FILLER_119_31
*895 FILLER_119_43
*896 FILLER_119_55
*897 FILLER_119_57
*898 FILLER_119_69
*899 FILLER_119_77
*900 FILLER_119_91
*901 FILLER_119_99
*902 FILLER_11_19
*903 FILLER_11_31
*904 FILLER_11_43
*905 FILLER_11_55
*906 FILLER_11_57
*907 FILLER_11_69
*908 FILLER_11_7
*909 FILLER_11_81
*910 FILLER_11_85
*911 FILLER_11_90
*912 FILLER_120_102
*913 FILLER_120_13
*914 FILLER_120_25
*915 FILLER_120_29
*916 FILLER_120_41
*917 FILLER_120_53
*918 FILLER_120_65
*919 FILLER_120_73
*920 FILLER_120_80
*921 FILLER_120_85
*922 FILLER_120_98
*923 FILLER_121_18
*924 FILLER_121_22
*925 FILLER_121_35
*926 FILLER_121_47
*927 FILLER_121_55
*928 FILLER_121_57
*929 FILLER_121_6
*930 FILLER_121_69
*931 FILLER_121_85
*932 FILLER_121_89
*933 FILLER_121_99
*934 FILLER_122_101
*935 FILLER_122_24
*936 FILLER_122_29
*937 FILLER_122_41
*938 FILLER_122_53
*939 FILLER_122_6
*940 FILLER_122_61
*941 FILLER_122_71
*942 FILLER_122_75
*943 FILLER_122_80
*944 FILLER_122_85
*945 FILLER_122_90
*946 FILLER_122_98
*947 FILLER_123_13
*948 FILLER_123_29
*949 FILLER_123_3
*950 FILLER_123_41
*951 FILLER_123_53
*952 FILLER_123_57
*953 FILLER_123_69
*954 FILLER_123_77
*955 FILLER_123_83
*956 FILLER_124_15
*957 FILLER_124_22
*958 FILLER_124_32
*959 FILLER_124_44
*960 FILLER_124_56
*961 FILLER_124_68
*962 FILLER_124_80
*963 FILLER_124_85
*964 FILLER_124_99
*965 FILLER_125_101
*966 FILLER_125_21
*967 FILLER_125_3
*968 FILLER_125_33
*969 FILLER_125_45
*970 FILLER_125_53
*971 FILLER_125_57
*972 FILLER_125_77
*973 FILLER_125_85
*974 FILLER_125_90
*975 FILLER_125_98
*976 FILLER_126_13
*977 FILLER_126_25
*978 FILLER_126_38
*979 FILLER_126_50
*980 FILLER_126_62
*981 FILLER_126_74
*982 FILLER_126_82
*983 FILLER_126_85
*984 FILLER_126_93
*985 FILLER_126_99
*986 FILLER_127_18
*987 FILLER_127_30
*988 FILLER_127_42
*989 FILLER_127_54
*990 FILLER_127_57
*991 FILLER_127_6
*992 FILLER_127_69
*993 FILLER_127_81
*994 FILLER_127_93
*995 FILLER_127_99
*996 FILLER_128_13
*997 FILLER_128_25
*998 FILLER_128_41
*999 FILLER_128_53
*1000 FILLER_128_6
*1001 FILLER_128_63
*1002 FILLER_128_75
*1003 FILLER_128_83
*1004 FILLER_128_85
*1005 FILLER_128_91
*1006 FILLER_128_99
*1007 FILLER_129_12
*1008 FILLER_129_25
*1009 FILLER_129_37
*1010 FILLER_129_49
*1011 FILLER_129_55
*1012 FILLER_129_57
*1013 FILLER_129_69
*1014 FILLER_129_81
*1015 FILLER_129_91
*1016 FILLER_129_99
*1017 FILLER_12_19
*1018 FILLER_12_27
*1019 FILLER_12_29
*1020 FILLER_12_41
*1021 FILLER_12_53
*1022 FILLER_12_65
*1023 FILLER_12_7
*1024 FILLER_12_77
*1025 FILLER_12_83
*1026 FILLER_12_85
*1027 FILLER_12_91
*1028 FILLER_12_99
*1029 FILLER_130_13
*1030 FILLER_130_20
*1031 FILLER_130_29
*1032 FILLER_130_3
*1033 FILLER_130_41
*1034 FILLER_130_53
*1035 FILLER_130_74
*1036 FILLER_130_82
*1037 FILLER_130_85
*1038 FILLER_130_89
*1039 FILLER_130_99
*1040 FILLER_131_14
*1041 FILLER_131_22
*1042 FILLER_131_3
*1043 FILLER_131_33
*1044 FILLER_131_45
*1045 FILLER_131_53
*1046 FILLER_131_57
*1047 FILLER_131_69
*1048 FILLER_131_81
*1049 FILLER_131_91
*1050 FILLER_131_99
*1051 FILLER_132_18
*1052 FILLER_132_26
*1053 FILLER_132_29
*1054 FILLER_132_3
*1055 FILLER_132_41
*1056 FILLER_132_53
*1057 FILLER_132_63
*1058 FILLER_132_75
*1059 FILLER_132_83
*1060 FILLER_132_85
*1061 FILLER_132_89
*1062 FILLER_132_99
*1063 FILLER_133_13
*1064 FILLER_133_26
*1065 FILLER_133_38
*1066 FILLER_133_50
*1067 FILLER_133_57
*1068 FILLER_133_6
*1069 FILLER_133_69
*1070 FILLER_133_81
*1071 FILLER_133_93
*1072 FILLER_133_99
*1073 FILLER_134_11
*1074 FILLER_134_23
*1075 FILLER_134_27
*1076 FILLER_134_29
*1077 FILLER_134_3
*1078 FILLER_134_41
*1079 FILLER_134_53
*1080 FILLER_134_65
*1081 FILLER_134_77
*1082 FILLER_134_83
*1083 FILLER_134_85
*1084 FILLER_134_93
*1085 FILLER_134_99
*1086 FILLER_135_13
*1087 FILLER_135_25
*1088 FILLER_135_37
*1089 FILLER_135_49
*1090 FILLER_135_55
*1091 FILLER_135_57
*1092 FILLER_135_69
*1093 FILLER_135_81
*1094 FILLER_135_91
*1095 FILLER_135_99
*1096 FILLER_136_18
*1097 FILLER_136_26
*1098 FILLER_136_29
*1099 FILLER_136_41
*1100 FILLER_136_53
*1101 FILLER_136_6
*1102 FILLER_136_65
*1103 FILLER_136_77
*1104 FILLER_136_83
*1105 FILLER_136_85
*1106 FILLER_136_91
*1107 FILLER_136_99
*1108 FILLER_137_13
*1109 FILLER_137_20
*1110 FILLER_137_32
*1111 FILLER_137_44
*1112 FILLER_137_57
*1113 FILLER_137_6
*1114 FILLER_137_69
*1115 FILLER_137_77
*1116 FILLER_137_83
*1117 FILLER_137_91
*1118 FILLER_137_99
*1119 FILLER_138_13
*1120 FILLER_138_20
*1121 FILLER_138_29
*1122 FILLER_138_41
*1123 FILLER_138_53
*1124 FILLER_138_57
*1125 FILLER_138_65
*1126 FILLER_138_72
*1127 FILLER_138_80
*1128 FILLER_138_85
*1129 FILLER_138_91
*1130 FILLER_138_99
*1131 FILLER_13_15
*1132 FILLER_13_27
*1133 FILLER_13_3
*1134 FILLER_13_39
*1135 FILLER_13_51
*1136 FILLER_13_55
*1137 FILLER_13_57
*1138 FILLER_13_69
*1139 FILLER_13_77
*1140 FILLER_13_85
*1141 FILLER_13_99
*1142 FILLER_14_19
*1143 FILLER_14_27
*1144 FILLER_14_29
*1145 FILLER_14_41
*1146 FILLER_14_53
*1147 FILLER_14_68
*1148 FILLER_14_7
*1149 FILLER_14_76
*1150 FILLER_14_80
*1151 FILLER_14_85
*1152 FILLER_14_89
*1153 FILLER_14_99
*1154 FILLER_15_102
*1155 FILLER_15_19
*1156 FILLER_15_31
*1157 FILLER_15_43
*1158 FILLER_15_55
*1159 FILLER_15_57
*1160 FILLER_15_66
*1161 FILLER_15_7
*1162 FILLER_15_72
*1163 FILLER_15_76
*1164 FILLER_15_89
*1165 FILLER_16_101
*1166 FILLER_16_19
*1167 FILLER_16_27
*1168 FILLER_16_29
*1169 FILLER_16_41
*1170 FILLER_16_53
*1171 FILLER_16_57
*1172 FILLER_16_61
*1173 FILLER_16_68
*1174 FILLER_16_7
*1175 FILLER_16_79
*1176 FILLER_16_83
*1177 FILLER_16_85
*1178 FILLER_16_90
*1179 FILLER_16_98
*1180 FILLER_17_19
*1181 FILLER_17_31
*1182 FILLER_17_43
*1183 FILLER_17_55
*1184 FILLER_17_57
*1185 FILLER_17_7
*1186 FILLER_17_75
*1187 FILLER_17_99
*1188 FILLER_18_19
*1189 FILLER_18_27
*1190 FILLER_18_29
*1191 FILLER_18_41
*1192 FILLER_18_49
*1193 FILLER_18_53
*1194 FILLER_18_60
*1195 FILLER_18_7
*1196 FILLER_18_80
*1197 FILLER_18_85
*1198 FILLER_18_89
*1199 FILLER_18_99
*1200 FILLER_19_15
*1201 FILLER_19_27
*1202 FILLER_19_3
*1203 FILLER_19_39
*1204 FILLER_19_47
*1205 FILLER_19_52
*1206 FILLER_19_57
*1207 FILLER_19_62
*1208 FILLER_19_75
*1209 FILLER_19_99
*1210 FILLER_1_19
*1211 FILLER_1_31
*1212 FILLER_1_43
*1213 FILLER_1_55
*1214 FILLER_1_57
*1215 FILLER_1_69
*1216 FILLER_1_7
*1217 FILLER_1_75
*1218 FILLER_1_99
*1219 FILLER_20_19
*1220 FILLER_20_27
*1221 FILLER_20_29
*1222 FILLER_20_41
*1223 FILLER_20_45
*1224 FILLER_20_54
*1225 FILLER_20_67
*1226 FILLER_20_7
*1227 FILLER_20_80
*1228 FILLER_20_85
*1229 FILLER_20_99
*1230 FILLER_21_19
*1231 FILLER_21_31
*1232 FILLER_21_43
*1233 FILLER_21_52
*1234 FILLER_21_60
*1235 FILLER_21_7
*1236 FILLER_21_73
*1237 FILLER_21_86
*1238 FILLER_21_99
*1239 FILLER_22_19
*1240 FILLER_22_27
*1241 FILLER_22_29
*1242 FILLER_22_41
*1243 FILLER_22_48
*1244 FILLER_22_55
*1245 FILLER_22_63
*1246 FILLER_22_7
*1247 FILLER_22_75
*1248 FILLER_22_83
*1249 FILLER_22_85
*1250 FILLER_22_89
*1251 FILLER_22_99
*1252 FILLER_23_19
*1253 FILLER_23_31
*1254 FILLER_23_43
*1255 FILLER_23_55
*1256 FILLER_23_57
*1257 FILLER_23_61
*1258 FILLER_23_65
*1259 FILLER_23_7
*1260 FILLER_23_73
*1261 FILLER_23_86
*1262 FILLER_23_99
*1263 FILLER_24_19
*1264 FILLER_24_27
*1265 FILLER_24_29
*1266 FILLER_24_41
*1267 FILLER_24_53
*1268 FILLER_24_62
*1269 FILLER_24_69
*1270 FILLER_24_7
*1271 FILLER_24_80
*1272 FILLER_24_85
*1273 FILLER_24_99
*1274 FILLER_25_15
*1275 FILLER_25_27
*1276 FILLER_25_3
*1277 FILLER_25_39
*1278 FILLER_25_47
*1279 FILLER_25_52
*1280 FILLER_25_57
*1281 FILLER_25_66
*1282 FILLER_25_86
*1283 FILLER_25_99
*1284 FILLER_26_102
*1285 FILLER_26_19
*1286 FILLER_26_27
*1287 FILLER_26_29
*1288 FILLER_26_41
*1289 FILLER_26_53
*1290 FILLER_26_57
*1291 FILLER_26_61
*1292 FILLER_26_68
*1293 FILLER_26_7
*1294 FILLER_26_80
*1295 FILLER_26_85
*1296 FILLER_26_96
*1297 FILLER_27_102
*1298 FILLER_27_19
*1299 FILLER_27_31
*1300 FILLER_27_43
*1301 FILLER_27_55
*1302 FILLER_27_57
*1303 FILLER_27_61
*1304 FILLER_27_68
*1305 FILLER_27_7
*1306 FILLER_27_88
*1307 FILLER_28_19
*1308 FILLER_28_27
*1309 FILLER_28_29
*1310 FILLER_28_41
*1311 FILLER_28_53
*1312 FILLER_28_62
*1313 FILLER_28_7
*1314 FILLER_28_70
*1315 FILLER_28_80
*1316 FILLER_28_85
*1317 FILLER_28_89
*1318 FILLER_28_99
*1319 FILLER_29_101
*1320 FILLER_29_19
*1321 FILLER_29_31
*1322 FILLER_29_43
*1323 FILLER_29_55
*1324 FILLER_29_57
*1325 FILLER_29_68
*1326 FILLER_29_7
*1327 FILLER_29_76
*1328 FILLER_29_80
*1329 FILLER_29_90
*1330 FILLER_29_98
*1331 FILLER_2_19
*1332 FILLER_2_27
*1333 FILLER_2_29
*1334 FILLER_2_41
*1335 FILLER_2_53
*1336 FILLER_2_65
*1337 FILLER_2_7
*1338 FILLER_2_80
*1339 FILLER_2_85
*1340 FILLER_2_99
*1341 FILLER_30_102
*1342 FILLER_30_15
*1343 FILLER_30_27
*1344 FILLER_30_29
*1345 FILLER_30_3
*1346 FILLER_30_41
*1347 FILLER_30_53
*1348 FILLER_30_65
*1349 FILLER_30_69
*1350 FILLER_30_73
*1351 FILLER_30_80
*1352 FILLER_30_85
*1353 FILLER_31_19
*1354 FILLER_31_31
*1355 FILLER_31_43
*1356 FILLER_31_55
*1357 FILLER_31_57
*1358 FILLER_31_69
*1359 FILLER_31_7
*1360 FILLER_31_75
*1361 FILLER_31_79
*1362 FILLER_31_86
*1363 FILLER_31_99
*1364 FILLER_32_19
*1365 FILLER_32_27
*1366 FILLER_32_29
*1367 FILLER_32_41
*1368 FILLER_32_53
*1369 FILLER_32_65
*1370 FILLER_32_7
*1371 FILLER_32_80
*1372 FILLER_32_85
*1373 FILLER_32_89
*1374 FILLER_32_99
*1375 FILLER_33_101
*1376 FILLER_33_19
*1377 FILLER_33_31
*1378 FILLER_33_43
*1379 FILLER_33_55
*1380 FILLER_33_57
*1381 FILLER_33_69
*1382 FILLER_33_7
*1383 FILLER_33_75
*1384 FILLER_33_79
*1385 FILLER_33_86
*1386 FILLER_33_90
*1387 FILLER_33_98
*1388 FILLER_34_19
*1389 FILLER_34_27
*1390 FILLER_34_29
*1391 FILLER_34_41
*1392 FILLER_34_53
*1393 FILLER_34_65
*1394 FILLER_34_7
*1395 FILLER_34_77
*1396 FILLER_34_83
*1397 FILLER_34_85
*1398 FILLER_34_99
*1399 FILLER_35_19
*1400 FILLER_35_31
*1401 FILLER_35_43
*1402 FILLER_35_55
*1403 FILLER_35_57
*1404 FILLER_35_69
*1405 FILLER_35_7
*1406 FILLER_35_75
*1407 FILLER_35_85
*1408 FILLER_35_99
*1409 FILLER_36_15
*1410 FILLER_36_27
*1411 FILLER_36_29
*1412 FILLER_36_3
*1413 FILLER_36_41
*1414 FILLER_36_53
*1415 FILLER_36_65
*1416 FILLER_36_73
*1417 FILLER_36_80
*1418 FILLER_36_85
*1419 FILLER_36_99
*1420 FILLER_37_19
*1421 FILLER_37_31
*1422 FILLER_37_43
*1423 FILLER_37_55
*1424 FILLER_37_57
*1425 FILLER_37_69
*1426 FILLER_37_7
*1427 FILLER_37_86
*1428 FILLER_37_99
*1429 FILLER_38_19
*1430 FILLER_38_27
*1431 FILLER_38_29
*1432 FILLER_38_41
*1433 FILLER_38_53
*1434 FILLER_38_65
*1435 FILLER_38_7
*1436 FILLER_38_77
*1437 FILLER_38_83
*1438 FILLER_38_85
*1439 FILLER_38_89
*1440 FILLER_38_99
*1441 FILLER_39_19
*1442 FILLER_39_31
*1443 FILLER_39_43
*1444 FILLER_39_55
*1445 FILLER_39_57
*1446 FILLER_39_69
*1447 FILLER_39_7
*1448 FILLER_39_81
*1449 FILLER_39_86
*1450 FILLER_39_99
*1451 FILLER_3_19
*1452 FILLER_3_31
*1453 FILLER_3_43
*1454 FILLER_3_55
*1455 FILLER_3_57
*1456 FILLER_3_69
*1457 FILLER_3_7
*1458 FILLER_3_81
*1459 FILLER_3_85
*1460 FILLER_3_99
*1461 FILLER_40_19
*1462 FILLER_40_27
*1463 FILLER_40_29
*1464 FILLER_40_41
*1465 FILLER_40_53
*1466 FILLER_40_65
*1467 FILLER_40_7
*1468 FILLER_40_77
*1469 FILLER_40_83
*1470 FILLER_40_85
*1471 FILLER_40_91
*1472 FILLER_40_99
*1473 FILLER_41_19
*1474 FILLER_41_31
*1475 FILLER_41_43
*1476 FILLER_41_55
*1477 FILLER_41_57
*1478 FILLER_41_69
*1479 FILLER_41_7
*1480 FILLER_41_81
*1481 FILLER_41_91
*1482 FILLER_41_99
*1483 FILLER_42_15
*1484 FILLER_42_27
*1485 FILLER_42_29
*1486 FILLER_42_3
*1487 FILLER_42_41
*1488 FILLER_42_53
*1489 FILLER_42_65
*1490 FILLER_42_77
*1491 FILLER_42_83
*1492 FILLER_42_85
*1493 FILLER_42_89
*1494 FILLER_42_99
*1495 FILLER_43_19
*1496 FILLER_43_31
*1497 FILLER_43_43
*1498 FILLER_43_55
*1499 FILLER_43_57
*1500 FILLER_43_69
*1501 FILLER_43_7
*1502 FILLER_43_81
*1503 FILLER_43_91
*1504 FILLER_43_99
*1505 FILLER_44_19
*1506 FILLER_44_27
*1507 FILLER_44_29
*1508 FILLER_44_41
*1509 FILLER_44_53
*1510 FILLER_44_65
*1511 FILLER_44_7
*1512 FILLER_44_77
*1513 FILLER_44_83
*1514 FILLER_44_85
*1515 FILLER_44_93
*1516 FILLER_44_99
*1517 FILLER_45_19
*1518 FILLER_45_31
*1519 FILLER_45_43
*1520 FILLER_45_55
*1521 FILLER_45_57
*1522 FILLER_45_69
*1523 FILLER_45_7
*1524 FILLER_45_81
*1525 FILLER_45_93
*1526 FILLER_45_99
*1527 FILLER_46_19
*1528 FILLER_46_27
*1529 FILLER_46_29
*1530 FILLER_46_41
*1531 FILLER_46_53
*1532 FILLER_46_65
*1533 FILLER_46_7
*1534 FILLER_46_77
*1535 FILLER_46_83
*1536 FILLER_46_85
*1537 FILLER_46_93
*1538 FILLER_46_99
*1539 FILLER_47_15
*1540 FILLER_47_27
*1541 FILLER_47_3
*1542 FILLER_47_39
*1543 FILLER_47_51
*1544 FILLER_47_55
*1545 FILLER_47_57
*1546 FILLER_47_69
*1547 FILLER_47_81
*1548 FILLER_47_99
*1549 FILLER_48_19
*1550 FILLER_48_27
*1551 FILLER_48_29
*1552 FILLER_48_41
*1553 FILLER_48_53
*1554 FILLER_48_65
*1555 FILLER_48_7
*1556 FILLER_48_77
*1557 FILLER_48_83
*1558 FILLER_48_85
*1559 FILLER_48_91
*1560 FILLER_48_99
*1561 FILLER_49_19
*1562 FILLER_49_31
*1563 FILLER_49_43
*1564 FILLER_49_55
*1565 FILLER_49_57
*1566 FILLER_49_69
*1567 FILLER_49_7
*1568 FILLER_49_81
*1569 FILLER_49_86
*1570 FILLER_49_99
*1571 FILLER_4_19
*1572 FILLER_4_27
*1573 FILLER_4_29
*1574 FILLER_4_41
*1575 FILLER_4_53
*1576 FILLER_4_65
*1577 FILLER_4_7
*1578 FILLER_4_77
*1579 FILLER_4_83
*1580 FILLER_4_85
*1581 FILLER_4_99
*1582 FILLER_50_19
*1583 FILLER_50_27
*1584 FILLER_50_29
*1585 FILLER_50_41
*1586 FILLER_50_53
*1587 FILLER_50_65
*1588 FILLER_50_7
*1589 FILLER_50_77
*1590 FILLER_50_83
*1591 FILLER_50_85
*1592 FILLER_50_91
*1593 FILLER_50_99
*1594 FILLER_51_19
*1595 FILLER_51_31
*1596 FILLER_51_43
*1597 FILLER_51_55
*1598 FILLER_51_57
*1599 FILLER_51_69
*1600 FILLER_51_7
*1601 FILLER_51_81
*1602 FILLER_51_93
*1603 FILLER_51_99
*1604 FILLER_52_19
*1605 FILLER_52_27
*1606 FILLER_52_29
*1607 FILLER_52_41
*1608 FILLER_52_53
*1609 FILLER_52_65
*1610 FILLER_52_7
*1611 FILLER_52_77
*1612 FILLER_52_83
*1613 FILLER_52_85
*1614 FILLER_52_93
*1615 FILLER_52_99
*1616 FILLER_53_15
*1617 FILLER_53_27
*1618 FILLER_53_3
*1619 FILLER_53_39
*1620 FILLER_53_51
*1621 FILLER_53_55
*1622 FILLER_53_57
*1623 FILLER_53_69
*1624 FILLER_53_81
*1625 FILLER_53_89
*1626 FILLER_54_101
*1627 FILLER_54_18
*1628 FILLER_54_26
*1629 FILLER_54_29
*1630 FILLER_54_41
*1631 FILLER_54_53
*1632 FILLER_54_6
*1633 FILLER_54_65
*1634 FILLER_54_77
*1635 FILLER_54_83
*1636 FILLER_54_85
*1637 FILLER_54_90
*1638 FILLER_54_98
*1639 FILLER_55_101
*1640 FILLER_55_18
*1641 FILLER_55_30
*1642 FILLER_55_42
*1643 FILLER_55_54
*1644 FILLER_55_57
*1645 FILLER_55_6
*1646 FILLER_55_69
*1647 FILLER_55_81
*1648 FILLER_55_86
*1649 FILLER_55_90
*1650 FILLER_55_98
*1651 FILLER_56_10
*1652 FILLER_56_20
*1653 FILLER_56_29
*1654 FILLER_56_41
*1655 FILLER_56_53
*1656 FILLER_56_6
*1657 FILLER_56_65
*1658 FILLER_56_77
*1659 FILLER_56_83
*1660 FILLER_56_85
*1661 FILLER_57_13
*1662 FILLER_57_25
*1663 FILLER_57_37
*1664 FILLER_57_49
*1665 FILLER_57_55
*1666 FILLER_57_57
*1667 FILLER_57_69
*1668 FILLER_57_81
*1669 FILLER_57_86
*1670 FILLER_57_99
*1671 FILLER_58_13
*1672 FILLER_58_25
*1673 FILLER_58_29
*1674 FILLER_58_41
*1675 FILLER_58_53
*1676 FILLER_58_65
*1677 FILLER_58_77
*1678 FILLER_58_83
*1679 FILLER_58_85
*1680 FILLER_58_91
*1681 FILLER_58_99
*1682 FILLER_59_23
*1683 FILLER_59_3
*1684 FILLER_59_35
*1685 FILLER_59_47
*1686 FILLER_59_55
*1687 FILLER_59_57
*1688 FILLER_59_69
*1689 FILLER_59_81
*1690 FILLER_59_87